# generated using pymatgen
data_C
_symmetry_space_group_name_H-M   'P 1'
_cell_length_a   52.30678732
_cell_length_b   52.30678732
_cell_length_c   30.00000000
_cell_angle_alpha   90.00000000
_cell_angle_beta   90.00000000
_cell_angle_gamma   60.00000000
_symmetry_Int_Tables_number   1
_chemical_formula_structural   C
_chemical_formula_sum   C1216
_cell_volume   71083.36514263
_cell_formula_units_Z   1216
loop_
 _symmetry_equiv_pos_site_id
 _symmetry_equiv_pos_as_xyz
  1  'x, y, z'
loop_
 _atom_site_type_symbol
 _atom_site_label
 _atom_site_symmetry_multiplicity
 _atom_site_fract_x
 _atom_site_fract_y
 _atom_site_fract_z
 _atom_site_occupancy
  C  C0  1  0.06140351  0.92982456  0.53333333  1
  C  C1  1  0.10087719  0.95614035  0.53333333  1
  C  C2  1  0.14035088  0.98245614  0.53333333  1
  C  C3  1  0.04824561  0.83771930  0.53333333  1
  C  C4  1  0.08771930  0.86403509  0.53333333  1
  C  C5  1  0.12719298  0.89035088  0.53333333  1
  C  C6  1  0.16666667  0.91666667  0.53333333  1
  C  C7  1  0.20614035  0.94298246  0.53333333  1
  C  C8  1  0.24561404  0.96929825  0.53333333  1
  C  C9  1  0.03508772  0.74561404  0.53333333  1
  C  C10  1  0.07456140  0.77192982  0.53333333  1
  C  C11  1  0.11403509  0.79824561  0.53333333  1
  C  C12  1  0.15350877  0.82456140  0.53333333  1
  C  C13  1  0.19298246  0.85087719  0.53333333  1
  C  C14  1  0.23245614  0.87719298  0.53333333  1
  C  C15  1  0.27192982  0.90350877  0.53333333  1
  C  C16  1  0.31140351  0.92982456  0.53333333  1
  C  C17  1  0.35087719  0.95614035  0.53333333  1
  C  C18  1  0.39035088  0.98245614  0.53333333  1
  C  C19  1  0.06140351  0.67982456  0.53333333  1
  C  C20  1  0.10087719  0.70614035  0.53333333  1
  C  C21  1  0.14035088  0.73245614  0.53333333  1
  C  C22  1  0.17982456  0.75877193  0.53333333  1
  C  C23  1  0.21929825  0.78508772  0.53333333  1
  C  C24  1  0.25877193  0.81140351  0.53333333  1
  C  C25  1  0.29824561  0.83771930  0.53333333  1
  C  C26  1  0.33771930  0.86403509  0.53333333  1
  C  C27  1  0.37719298  0.89035088  0.53333333  1
  C  C28  1  0.41666667  0.91666667  0.53333333  1
  C  C29  1  0.45614035  0.94298246  0.53333333  1
  C  C30  1  0.49561404  0.96929825  0.53333333  1
  C  C31  1  0.04824561  0.58771930  0.53333333  1
  C  C32  1  0.08771930  0.61403509  0.53333333  1
  C  C33  1  0.12719298  0.64035088  0.53333333  1
  C  C34  1  0.16666667  0.66666667  0.53333333  1
  C  C35  1  0.20614035  0.69298246  0.53333333  1
  C  C36  1  0.24561404  0.71929825  0.53333333  1
  C  C37  1  0.28508772  0.74561404  0.53333333  1
  C  C38  1  0.32456140  0.77192982  0.53333333  1
  C  C39  1  0.36403509  0.79824561  0.53333333  1
  C  C40  1  0.40350877  0.82456140  0.53333333  1
  C  C41  1  0.44298246  0.85087719  0.53333333  1
  C  C42  1  0.48245614  0.87719298  0.53333333  1
  C  C43  1  0.52192982  0.90350877  0.53333333  1
  C  C44  1  0.56140351  0.92982456  0.53333333  1
  C  C45  1  0.60087719  0.95614035  0.53333333  1
  C  C46  1  0.64035088  0.98245614  0.53333333  1
  C  C47  1  0.03508772  0.49561404  0.53333333  1
  C  C48  1  0.07456140  0.52192982  0.53333333  1
  C  C49  1  0.11403509  0.54824561  0.53333333  1
  C  C50  1  0.15350877  0.57456140  0.53333333  1
  C  C51  1  0.19298246  0.60087719  0.53333333  1
  C  C52  1  0.23245614  0.62719298  0.53333333  1
  C  C53  1  0.27192982  0.65350877  0.53333333  1
  C  C54  1  0.31140351  0.67982456  0.53333333  1
  C  C55  1  0.35087719  0.70614035  0.53333333  1
  C  C56  1  0.39035088  0.73245614  0.53333333  1
  C  C57  1  0.42982456  0.75877193  0.53333333  1
  C  C58  1  0.46929825  0.78508772  0.53333333  1
  C  C59  1  0.50877193  0.81140351  0.53333333  1
  C  C60  1  0.54824561  0.83771930  0.53333333  1
  C  C61  1  0.58771930  0.86403509  0.53333333  1
  C  C62  1  0.62719298  0.89035088  0.53333333  1
  C  C63  1  0.66666667  0.91666667  0.53333333  1
  C  C64  1  0.70614035  0.94298246  0.53333333  1
  C  C65  1  0.74561404  0.96929825  0.53333333  1
  C  C66  1  0.06140351  0.42982456  0.53333333  1
  C  C67  1  0.10087719  0.45614035  0.53333333  1
  C  C68  1  0.14035088  0.48245614  0.53333333  1
  C  C69  1  0.17982456  0.50877193  0.53333333  1
  C  C70  1  0.21929825  0.53508772  0.53333333  1
  C  C71  1  0.25877193  0.56140351  0.53333333  1
  C  C72  1  0.29824561  0.58771930  0.53333333  1
  C  C73  1  0.33771930  0.61403509  0.53333333  1
  C  C74  1  0.37719298  0.64035088  0.53333333  1
  C  C75  1  0.41666667  0.66666667  0.53333333  1
  C  C76  1  0.45614035  0.69298246  0.53333333  1
  C  C77  1  0.49561404  0.71929825  0.53333333  1
  C  C78  1  0.53508772  0.74561404  0.53333333  1
  C  C79  1  0.57456140  0.77192982  0.53333333  1
  C  C80  1  0.61403509  0.79824561  0.53333333  1
  C  C81  1  0.65350877  0.82456140  0.53333333  1
  C  C82  1  0.69298246  0.85087719  0.53333333  1
  C  C83  1  0.73245614  0.87719298  0.53333333  1
  C  C84  1  0.77192982  0.90350877  0.53333333  1
  C  C85  1  0.81140351  0.92982456  0.53333333  1
  C  C86  1  0.85087719  0.95614035  0.53333333  1
  C  C87  1  0.89035088  0.98245614  0.53333333  1
  C  C88  1  0.04824561  0.33771930  0.53333333  1
  C  C89  1  0.08771930  0.36403509  0.53333333  1
  C  C90  1  0.12719298  0.39035088  0.53333333  1
  C  C91  1  0.16666667  0.41666667  0.53333333  1
  C  C92  1  0.20614035  0.44298246  0.53333333  1
  C  C93  1  0.24561404  0.46929825  0.53333333  1
  C  C94  1  0.28508772  0.49561404  0.53333333  1
  C  C95  1  0.32456140  0.52192982  0.53333333  1
  C  C96  1  0.36403509  0.54824561  0.53333333  1
  C  C97  1  0.40350877  0.57456140  0.53333333  1
  C  C98  1  0.44298246  0.60087719  0.53333333  1
  C  C99  1  0.48245614  0.62719298  0.53333333  1
  C  C100  1  0.52192982  0.65350877  0.53333333  1
  C  C101  1  0.56140351  0.67982456  0.53333333  1
  C  C102  1  0.60087719  0.70614035  0.53333333  1
  C  C103  1  0.64035088  0.73245614  0.53333333  1
  C  C104  1  0.67982456  0.75877193  0.53333333  1
  C  C105  1  0.71929825  0.78508772  0.53333333  1
  C  C106  1  0.75877193  0.81140351  0.53333333  1
  C  C107  1  0.79824561  0.83771930  0.53333333  1
  C  C108  1  0.83771930  0.86403509  0.53333333  1
  C  C109  1  0.87719298  0.89035088  0.53333333  1
  C  C110  1  0.91666667  0.91666667  0.53333333  1
  C  C111  1  0.95614035  0.94298246  0.53333333  1
  C  C112  1  0.99561404  0.96929825  0.53333333  1
  C  C113  1  0.03508772  0.24561404  0.53333333  1
  C  C114  1  0.07456140  0.27192982  0.53333333  1
  C  C115  1  0.11403509  0.29824561  0.53333333  1
  C  C116  1  0.15350877  0.32456140  0.53333333  1
  C  C117  1  0.19298246  0.35087719  0.53333333  1
  C  C118  1  0.23245614  0.37719298  0.53333333  1
  C  C119  1  0.27192982  0.40350877  0.53333333  1
  C  C120  1  0.31140351  0.42982456  0.53333333  1
  C  C121  1  0.35087719  0.45614035  0.53333333  1
  C  C122  1  0.39035088  0.48245614  0.53333333  1
  C  C123  1  0.42982456  0.50877193  0.53333333  1
  C  C124  1  0.46929825  0.53508772  0.53333333  1
  C  C125  1  0.50877193  0.56140351  0.53333333  1
  C  C126  1  0.54824561  0.58771930  0.53333333  1
  C  C127  1  0.58771930  0.61403509  0.53333333  1
  C  C128  1  0.62719298  0.64035088  0.53333333  1
  C  C129  1  0.66666667  0.66666667  0.53333333  1
  C  C130  1  0.70614035  0.69298246  0.53333333  1
  C  C131  1  0.74561404  0.71929825  0.53333333  1
  C  C132  1  0.78508772  0.74561404  0.53333333  1
  C  C133  1  0.82456140  0.77192982  0.53333333  1
  C  C134  1  0.86403509  0.79824561  0.53333333  1
  C  C135  1  0.90350877  0.82456140  0.53333333  1
  C  C136  1  0.94298246  0.85087719  0.53333333  1
  C  C137  1  0.98245614  0.87719298  0.53333333  1
  C  C138  1  0.02192982  0.90350877  0.53333333  1
  C  C139  1  0.06140351  0.17982456  0.53333333  1
  C  C140  1  0.10087719  0.20614035  0.53333333  1
  C  C141  1  0.14035088  0.23245614  0.53333333  1
  C  C142  1  0.17982456  0.25877193  0.53333333  1
  C  C143  1  0.21929825  0.28508772  0.53333333  1
  C  C144  1  0.25877193  0.31140351  0.53333333  1
  C  C145  1  0.29824561  0.33771930  0.53333333  1
  C  C146  1  0.33771930  0.36403509  0.53333333  1
  C  C147  1  0.37719298  0.39035088  0.53333333  1
  C  C148  1  0.41666667  0.41666667  0.53333333  1
  C  C149  1  0.45614035  0.44298246  0.53333333  1
  C  C150  1  0.49561404  0.46929825  0.53333333  1
  C  C151  1  0.53508772  0.49561404  0.53333333  1
  C  C152  1  0.57456140  0.52192982  0.53333333  1
  C  C153  1  0.61403509  0.54824561  0.53333333  1
  C  C154  1  0.65350877  0.57456140  0.53333333  1
  C  C155  1  0.69298246  0.60087719  0.53333333  1
  C  C156  1  0.73245614  0.62719298  0.53333333  1
  C  C157  1  0.77192982  0.65350877  0.53333333  1
  C  C158  1  0.81140351  0.67982456  0.53333333  1
  C  C159  1  0.85087719  0.70614035  0.53333333  1
  C  C160  1  0.89035088  0.73245614  0.53333333  1
  C  C161  1  0.92982456  0.75877193  0.53333333  1
  C  C162  1  0.96929825  0.78508772  0.53333333  1
  C  C163  1  0.00877193  0.81140351  0.53333333  1
  C  C164  1  0.04824561  0.08771930  0.53333333  1
  C  C165  1  0.08771930  0.11403509  0.53333333  1
  C  C166  1  0.12719298  0.14035088  0.53333333  1
  C  C167  1  0.16666667  0.16666667  0.53333333  1
  C  C168  1  0.20614035  0.19298246  0.53333333  1
  C  C169  1  0.24561404  0.21929825  0.53333333  1
  C  C170  1  0.28508772  0.24561404  0.53333333  1
  C  C171  1  0.32456140  0.27192982  0.53333333  1
  C  C172  1  0.36403509  0.29824561  0.53333333  1
  C  C173  1  0.40350877  0.32456140  0.53333333  1
  C  C174  1  0.44298246  0.35087719  0.53333333  1
  C  C175  1  0.48245614  0.37719298  0.53333333  1
  C  C176  1  0.52192982  0.40350877  0.53333333  1
  C  C177  1  0.56140351  0.42982456  0.53333333  1
  C  C178  1  0.60087719  0.45614035  0.53333333  1
  C  C179  1  0.64035088  0.48245614  0.53333333  1
  C  C180  1  0.67982456  0.50877193  0.53333333  1
  C  C181  1  0.71929825  0.53508772  0.53333333  1
  C  C182  1  0.75877193  0.56140351  0.53333333  1
  C  C183  1  0.79824561  0.58771930  0.53333333  1
  C  C184  1  0.83771930  0.61403509  0.53333333  1
  C  C185  1  0.87719298  0.64035088  0.53333333  1
  C  C186  1  0.91666667  0.66666667  0.53333333  1
  C  C187  1  0.95614035  0.69298246  0.53333333  1
  C  C188  1  0.99561404  0.71929825  0.53333333  1
  C  C189  1  0.03508772  0.99561404  0.53333333  1
  C  C190  1  0.07456140  0.02192982  0.53333333  1
  C  C191  1  0.11403509  0.04824561  0.53333333  1
  C  C192  1  0.15350877  0.07456140  0.53333333  1
  C  C193  1  0.19298246  0.10087719  0.53333333  1
  C  C194  1  0.23245614  0.12719298  0.53333333  1
  C  C195  1  0.27192982  0.15350877  0.53333333  1
  C  C196  1  0.31140351  0.17982456  0.53333333  1
  C  C197  1  0.35087719  0.20614035  0.53333333  1
  C  C198  1  0.39035088  0.23245614  0.53333333  1
  C  C199  1  0.42982456  0.25877193  0.53333333  1
  C  C200  1  0.46929825  0.28508772  0.53333333  1
  C  C201  1  0.50877193  0.31140351  0.53333333  1
  C  C202  1  0.54824561  0.33771930  0.53333333  1
  C  C203  1  0.58771930  0.36403509  0.53333333  1
  C  C204  1  0.62719298  0.39035088  0.53333333  1
  C  C205  1  0.66666667  0.41666667  0.53333333  1
  C  C206  1  0.70614035  0.44298246  0.53333333  1
  C  C207  1  0.74561404  0.46929825  0.53333333  1
  C  C208  1  0.78508772  0.49561404  0.53333333  1
  C  C209  1  0.82456140  0.52192982  0.53333333  1
  C  C210  1  0.86403509  0.54824561  0.53333333  1
  C  C211  1  0.90350877  0.57456140  0.53333333  1
  C  C212  1  0.94298246  0.60087719  0.53333333  1
  C  C213  1  0.98245614  0.62719298  0.53333333  1
  C  C214  1  0.02192982  0.65350877  0.53333333  1
  C  C215  1  0.17982456  0.00877193  0.53333333  1
  C  C216  1  0.21929825  0.03508772  0.53333333  1
  C  C217  1  0.25877193  0.06140351  0.53333333  1
  C  C218  1  0.29824561  0.08771930  0.53333333  1
  C  C219  1  0.33771930  0.11403509  0.53333333  1
  C  C220  1  0.37719298  0.14035088  0.53333333  1
  C  C221  1  0.41666667  0.16666667  0.53333333  1
  C  C222  1  0.45614035  0.19298246  0.53333333  1
  C  C223  1  0.49561404  0.21929825  0.53333333  1
  C  C224  1  0.53508772  0.24561404  0.53333333  1
  C  C225  1  0.57456140  0.27192982  0.53333333  1
  C  C226  1  0.61403509  0.29824561  0.53333333  1
  C  C227  1  0.65350877  0.32456140  0.53333333  1
  C  C228  1  0.69298246  0.35087719  0.53333333  1
  C  C229  1  0.73245614  0.37719298  0.53333333  1
  C  C230  1  0.77192982  0.40350877  0.53333333  1
  C  C231  1  0.81140351  0.42982456  0.53333333  1
  C  C232  1  0.85087719  0.45614035  0.53333333  1
  C  C233  1  0.89035088  0.48245614  0.53333333  1
  C  C234  1  0.92982456  0.50877193  0.53333333  1
  C  C235  1  0.96929825  0.53508772  0.53333333  1
  C  C236  1  0.00877193  0.56140351  0.53333333  1
  C  C237  1  0.28508772  0.99561404  0.53333333  1
  C  C238  1  0.32456140  0.02192982  0.53333333  1
  C  C239  1  0.36403509  0.04824561  0.53333333  1
  C  C240  1  0.40350877  0.07456140  0.53333333  1
  C  C241  1  0.44298246  0.10087719  0.53333333  1
  C  C242  1  0.48245614  0.12719298  0.53333333  1
  C  C243  1  0.52192982  0.15350877  0.53333333  1
  C  C244  1  0.56140351  0.17982456  0.53333333  1
  C  C245  1  0.60087719  0.20614035  0.53333333  1
  C  C246  1  0.64035088  0.23245614  0.53333333  1
  C  C247  1  0.67982456  0.25877193  0.53333333  1
  C  C248  1  0.71929825  0.28508772  0.53333333  1
  C  C249  1  0.75877193  0.31140351  0.53333333  1
  C  C250  1  0.79824561  0.33771930  0.53333333  1
  C  C251  1  0.83771930  0.36403509  0.53333333  1
  C  C252  1  0.87719298  0.39035088  0.53333333  1
  C  C253  1  0.91666667  0.41666667  0.53333333  1
  C  C254  1  0.95614035  0.44298246  0.53333333  1
  C  C255  1  0.99561404  0.46929825  0.53333333  1
  C  C256  1  0.42982456  0.00877193  0.53333333  1
  C  C257  1  0.46929825  0.03508772  0.53333333  1
  C  C258  1  0.50877193  0.06140351  0.53333333  1
  C  C259  1  0.54824561  0.08771930  0.53333333  1
  C  C260  1  0.58771930  0.11403509  0.53333333  1
  C  C261  1  0.62719298  0.14035088  0.53333333  1
  C  C262  1  0.66666667  0.16666667  0.53333333  1
  C  C263  1  0.70614035  0.19298246  0.53333333  1
  C  C264  1  0.74561404  0.21929825  0.53333333  1
  C  C265  1  0.78508772  0.24561404  0.53333333  1
  C  C266  1  0.82456140  0.27192982  0.53333333  1
  C  C267  1  0.86403509  0.29824561  0.53333333  1
  C  C268  1  0.90350877  0.32456140  0.53333333  1
  C  C269  1  0.94298246  0.35087719  0.53333333  1
  C  C270  1  0.98245614  0.37719298  0.53333333  1
  C  C271  1  0.02192982  0.40350877  0.53333333  1
  C  C272  1  0.53508772  0.99561404  0.53333333  1
  C  C273  1  0.57456140  0.02192982  0.53333333  1
  C  C274  1  0.61403509  0.04824561  0.53333333  1
  C  C275  1  0.65350877  0.07456140  0.53333333  1
  C  C276  1  0.69298246  0.10087719  0.53333333  1
  C  C277  1  0.73245614  0.12719298  0.53333333  1
  C  C278  1  0.77192982  0.15350877  0.53333333  1
  C  C279  1  0.81140351  0.17982456  0.53333333  1
  C  C280  1  0.85087719  0.20614035  0.53333333  1
  C  C281  1  0.89035088  0.23245614  0.53333333  1
  C  C282  1  0.92982456  0.25877193  0.53333333  1
  C  C283  1  0.96929825  0.28508772  0.53333333  1
  C  C284  1  0.00877193  0.31140351  0.53333333  1
  C  C285  1  0.67982456  0.00877193  0.53333333  1
  C  C286  1  0.71929825  0.03508772  0.53333333  1
  C  C287  1  0.75877193  0.06140351  0.53333333  1
  C  C288  1  0.79824561  0.08771930  0.53333333  1
  C  C289  1  0.83771930  0.11403509  0.53333333  1
  C  C290  1  0.87719298  0.14035088  0.53333333  1
  C  C291  1  0.91666667  0.16666667  0.53333333  1
  C  C292  1  0.95614035  0.19298246  0.53333333  1
  C  C293  1  0.99561404  0.21929825  0.53333333  1
  C  C294  1  0.78508772  0.99561404  0.53333333  1
  C  C295  1  0.82456140  0.02192982  0.53333333  1
  C  C296  1  0.86403509  0.04824561  0.53333333  1
  C  C297  1  0.90350877  0.07456140  0.53333333  1
  C  C298  1  0.94298246  0.10087719  0.53333333  1
  C  C299  1  0.98245614  0.12719298  0.53333333  1
  C  C300  1  0.02192982  0.15350877  0.53333333  1
  C  C301  1  0.92982456  0.00877193  0.53333333  1
  C  C302  1  0.96929825  0.03508772  0.53333333  1
  C  C303  1  0.00877193  0.06140351  0.53333333  1
  C  C304  1  0.09649123  0.92543860  0.53333333  1
  C  C305  1  0.13596491  0.95175439  0.53333333  1
  C  C306  1  0.17543860  0.97807018  0.53333333  1
  C  C307  1  0.08333333  0.83333333  0.53333333  1
  C  C308  1  0.12280702  0.85964912  0.53333333  1
  C  C309  1  0.16228070  0.88596491  0.53333333  1
  C  C310  1  0.20175439  0.91228070  0.53333333  1
  C  C311  1  0.24122807  0.93859649  0.53333333  1
  C  C312  1  0.28070175  0.96491228  0.53333333  1
  C  C313  1  0.07017544  0.74122807  0.53333333  1
  C  C314  1  0.10964912  0.76754386  0.53333333  1
  C  C315  1  0.14912281  0.79385965  0.53333333  1
  C  C316  1  0.18859649  0.82017544  0.53333333  1
  C  C317  1  0.22807018  0.84649123  0.53333333  1
  C  C318  1  0.26754386  0.87280702  0.53333333  1
  C  C319  1  0.30701754  0.89912281  0.53333333  1
  C  C320  1  0.34649123  0.92543860  0.53333333  1
  C  C321  1  0.38596491  0.95175439  0.53333333  1
  C  C322  1  0.42543860  0.97807018  0.53333333  1
  C  C323  1  0.09649123  0.67543860  0.53333333  1
  C  C324  1  0.13596491  0.70175439  0.53333333  1
  C  C325  1  0.17543860  0.72807018  0.53333333  1
  C  C326  1  0.21491228  0.75438596  0.53333333  1
  C  C327  1  0.25438596  0.78070175  0.53333333  1
  C  C328  1  0.29385965  0.80701754  0.53333333  1
  C  C329  1  0.33333333  0.83333333  0.53333333  1
  C  C330  1  0.37280702  0.85964912  0.53333333  1
  C  C331  1  0.41228070  0.88596491  0.53333333  1
  C  C332  1  0.45175439  0.91228070  0.53333333  1
  C  C333  1  0.49122807  0.93859649  0.53333333  1
  C  C334  1  0.53070175  0.96491228  0.53333333  1
  C  C335  1  0.08333333  0.58333333  0.53333333  1
  C  C336  1  0.12280702  0.60964912  0.53333333  1
  C  C337  1  0.16228070  0.63596491  0.53333333  1
  C  C338  1  0.20175439  0.66228070  0.53333333  1
  C  C339  1  0.24122807  0.68859649  0.53333333  1
  C  C340  1  0.28070175  0.71491228  0.53333333  1
  C  C341  1  0.32017544  0.74122807  0.53333333  1
  C  C342  1  0.35964912  0.76754386  0.53333333  1
  C  C343  1  0.39912281  0.79385965  0.53333333  1
  C  C344  1  0.43859649  0.82017544  0.53333333  1
  C  C345  1  0.47807018  0.84649123  0.53333333  1
  C  C346  1  0.51754386  0.87280702  0.53333333  1
  C  C347  1  0.55701754  0.89912281  0.53333333  1
  C  C348  1  0.59649123  0.92543860  0.53333333  1
  C  C349  1  0.63596491  0.95175439  0.53333333  1
  C  C350  1  0.67543860  0.97807018  0.53333333  1
  C  C351  1  0.07017544  0.49122807  0.53333333  1
  C  C352  1  0.10964912  0.51754386  0.53333333  1
  C  C353  1  0.14912281  0.54385965  0.53333333  1
  C  C354  1  0.18859649  0.57017544  0.53333333  1
  C  C355  1  0.22807018  0.59649123  0.53333333  1
  C  C356  1  0.26754386  0.62280702  0.53333333  1
  C  C357  1  0.30701754  0.64912281  0.53333333  1
  C  C358  1  0.34649123  0.67543860  0.53333333  1
  C  C359  1  0.38596491  0.70175439  0.53333333  1
  C  C360  1  0.42543860  0.72807018  0.53333333  1
  C  C361  1  0.46491228  0.75438596  0.53333333  1
  C  C362  1  0.50438596  0.78070175  0.53333333  1
  C  C363  1  0.54385965  0.80701754  0.53333333  1
  C  C364  1  0.58333333  0.83333333  0.53333333  1
  C  C365  1  0.62280702  0.85964912  0.53333333  1
  C  C366  1  0.66228070  0.88596491  0.53333333  1
  C  C367  1  0.70175439  0.91228070  0.53333333  1
  C  C368  1  0.74122807  0.93859649  0.53333333  1
  C  C369  1  0.78070175  0.96491228  0.53333333  1
  C  C370  1  0.09649123  0.42543860  0.53333333  1
  C  C371  1  0.13596491  0.45175439  0.53333333  1
  C  C372  1  0.17543860  0.47807018  0.53333333  1
  C  C373  1  0.21491228  0.50438596  0.53333333  1
  C  C374  1  0.25438596  0.53070175  0.53333333  1
  C  C375  1  0.29385965  0.55701754  0.53333333  1
  C  C376  1  0.33333333  0.58333333  0.53333333  1
  C  C377  1  0.37280702  0.60964912  0.53333333  1
  C  C378  1  0.41228070  0.63596491  0.53333333  1
  C  C379  1  0.45175439  0.66228070  0.53333333  1
  C  C380  1  0.49122807  0.68859649  0.53333333  1
  C  C381  1  0.53070175  0.71491228  0.53333333  1
  C  C382  1  0.57017544  0.74122807  0.53333333  1
  C  C383  1  0.60964912  0.76754386  0.53333333  1
  C  C384  1  0.64912281  0.79385965  0.53333333  1
  C  C385  1  0.68859649  0.82017544  0.53333333  1
  C  C386  1  0.72807018  0.84649123  0.53333333  1
  C  C387  1  0.76754386  0.87280702  0.53333333  1
  C  C388  1  0.80701754  0.89912281  0.53333333  1
  C  C389  1  0.84649123  0.92543860  0.53333333  1
  C  C390  1  0.88596491  0.95175439  0.53333333  1
  C  C391  1  0.92543860  0.97807018  0.53333333  1
  C  C392  1  0.08333333  0.33333333  0.53333333  1
  C  C393  1  0.12280702  0.35964912  0.53333333  1
  C  C394  1  0.16228070  0.38596491  0.53333333  1
  C  C395  1  0.20175439  0.41228070  0.53333333  1
  C  C396  1  0.24122807  0.43859649  0.53333333  1
  C  C397  1  0.28070175  0.46491228  0.53333333  1
  C  C398  1  0.32017544  0.49122807  0.53333333  1
  C  C399  1  0.35964912  0.51754386  0.53333333  1
  C  C400  1  0.39912281  0.54385965  0.53333333  1
  C  C401  1  0.43859649  0.57017544  0.53333333  1
  C  C402  1  0.47807018  0.59649123  0.53333333  1
  C  C403  1  0.51754386  0.62280702  0.53333333  1
  C  C404  1  0.55701754  0.64912281  0.53333333  1
  C  C405  1  0.59649123  0.67543860  0.53333333  1
  C  C406  1  0.63596491  0.70175439  0.53333333  1
  C  C407  1  0.67543860  0.72807018  0.53333333  1
  C  C408  1  0.71491228  0.75438596  0.53333333  1
  C  C409  1  0.75438596  0.78070175  0.53333333  1
  C  C410  1  0.79385965  0.80701754  0.53333333  1
  C  C411  1  0.83333333  0.83333333  0.53333333  1
  C  C412  1  0.87280702  0.85964912  0.53333333  1
  C  C413  1  0.91228070  0.88596491  0.53333333  1
  C  C414  1  0.95175439  0.91228070  0.53333333  1
  C  C415  1  0.99122807  0.93859649  0.53333333  1
  C  C416  1  0.03070175  0.96491228  0.53333333  1
  C  C417  1  0.07017544  0.24122807  0.53333333  1
  C  C418  1  0.10964912  0.26754386  0.53333333  1
  C  C419  1  0.14912281  0.29385965  0.53333333  1
  C  C420  1  0.18859649  0.32017544  0.53333333  1
  C  C421  1  0.22807018  0.34649123  0.53333333  1
  C  C422  1  0.26754386  0.37280702  0.53333333  1
  C  C423  1  0.30701754  0.39912281  0.53333333  1
  C  C424  1  0.34649123  0.42543860  0.53333333  1
  C  C425  1  0.38596491  0.45175439  0.53333333  1
  C  C426  1  0.42543860  0.47807018  0.53333333  1
  C  C427  1  0.46491228  0.50438596  0.53333333  1
  C  C428  1  0.50438596  0.53070175  0.53333333  1
  C  C429  1  0.54385965  0.55701754  0.53333333  1
  C  C430  1  0.58333333  0.58333333  0.53333333  1
  C  C431  1  0.62280702  0.60964912  0.53333333  1
  C  C432  1  0.66228070  0.63596491  0.53333333  1
  C  C433  1  0.70175439  0.66228070  0.53333333  1
  C  C434  1  0.74122807  0.68859649  0.53333333  1
  C  C435  1  0.78070175  0.71491228  0.53333333  1
  C  C436  1  0.82017544  0.74122807  0.53333333  1
  C  C437  1  0.85964912  0.76754386  0.53333333  1
  C  C438  1  0.89912281  0.79385965  0.53333333  1
  C  C439  1  0.93859649  0.82017544  0.53333333  1
  C  C440  1  0.97807018  0.84649123  0.53333333  1
  C  C441  1  0.01754386  0.87280702  0.53333333  1
  C  C442  1  0.05701754  0.89912281  0.53333333  1
  C  C443  1  0.09649123  0.17543860  0.53333333  1
  C  C444  1  0.13596491  0.20175439  0.53333333  1
  C  C445  1  0.17543860  0.22807018  0.53333333  1
  C  C446  1  0.21491228  0.25438596  0.53333333  1
  C  C447  1  0.25438596  0.28070175  0.53333333  1
  C  C448  1  0.29385965  0.30701754  0.53333333  1
  C  C449  1  0.33333333  0.33333333  0.53333333  1
  C  C450  1  0.37280702  0.35964912  0.53333333  1
  C  C451  1  0.41228070  0.38596491  0.53333333  1
  C  C452  1  0.45175439  0.41228070  0.53333333  1
  C  C453  1  0.49122807  0.43859649  0.53333333  1
  C  C454  1  0.53070175  0.46491228  0.53333333  1
  C  C455  1  0.57017544  0.49122807  0.53333333  1
  C  C456  1  0.60964912  0.51754386  0.53333333  1
  C  C457  1  0.64912281  0.54385965  0.53333333  1
  C  C458  1  0.68859649  0.57017544  0.53333333  1
  C  C459  1  0.72807018  0.59649123  0.53333333  1
  C  C460  1  0.76754386  0.62280702  0.53333333  1
  C  C461  1  0.80701754  0.64912281  0.53333333  1
  C  C462  1  0.84649123  0.67543860  0.53333333  1
  C  C463  1  0.88596491  0.70175439  0.53333333  1
  C  C464  1  0.92543860  0.72807018  0.53333333  1
  C  C465  1  0.96491228  0.75438596  0.53333333  1
  C  C466  1  0.00438596  0.78070175  0.53333333  1
  C  C467  1  0.04385965  0.80701754  0.53333333  1
  C  C468  1  0.08333333  0.08333333  0.53333333  1
  C  C469  1  0.12280702  0.10964912  0.53333333  1
  C  C470  1  0.16228070  0.13596491  0.53333333  1
  C  C471  1  0.20175439  0.16228070  0.53333333  1
  C  C472  1  0.24122807  0.18859649  0.53333333  1
  C  C473  1  0.28070175  0.21491228  0.53333333  1
  C  C474  1  0.32017544  0.24122807  0.53333333  1
  C  C475  1  0.35964912  0.26754386  0.53333333  1
  C  C476  1  0.39912281  0.29385965  0.53333333  1
  C  C477  1  0.43859649  0.32017544  0.53333333  1
  C  C478  1  0.47807018  0.34649123  0.53333333  1
  C  C479  1  0.51754386  0.37280702  0.53333333  1
  C  C480  1  0.55701754  0.39912281  0.53333333  1
  C  C481  1  0.59649123  0.42543860  0.53333333  1
  C  C482  1  0.63596491  0.45175439  0.53333333  1
  C  C483  1  0.67543860  0.47807018  0.53333333  1
  C  C484  1  0.71491228  0.50438596  0.53333333  1
  C  C485  1  0.75438596  0.53070175  0.53333333  1
  C  C486  1  0.79385965  0.55701754  0.53333333  1
  C  C487  1  0.83333333  0.58333333  0.53333333  1
  C  C488  1  0.87280702  0.60964912  0.53333333  1
  C  C489  1  0.91228070  0.63596491  0.53333333  1
  C  C490  1  0.95175439  0.66228070  0.53333333  1
  C  C491  1  0.99122807  0.68859649  0.53333333  1
  C  C492  1  0.03070175  0.71491228  0.53333333  1
  C  C493  1  0.07017544  0.99122807  0.53333333  1
  C  C494  1  0.10964912  0.01754386  0.53333333  1
  C  C495  1  0.14912281  0.04385965  0.53333333  1
  C  C496  1  0.18859649  0.07017544  0.53333333  1
  C  C497  1  0.22807018  0.09649123  0.53333333  1
  C  C498  1  0.26754386  0.12280702  0.53333333  1
  C  C499  1  0.30701754  0.14912281  0.53333333  1
  C  C500  1  0.34649123  0.17543860  0.53333333  1
  C  C501  1  0.38596491  0.20175439  0.53333333  1
  C  C502  1  0.42543860  0.22807018  0.53333333  1
  C  C503  1  0.46491228  0.25438596  0.53333333  1
  C  C504  1  0.50438596  0.28070175  0.53333333  1
  C  C505  1  0.54385965  0.30701754  0.53333333  1
  C  C506  1  0.58333333  0.33333333  0.53333333  1
  C  C507  1  0.62280702  0.35964912  0.53333333  1
  C  C508  1  0.66228070  0.38596491  0.53333333  1
  C  C509  1  0.70175439  0.41228070  0.53333333  1
  C  C510  1  0.74122807  0.43859649  0.53333333  1
  C  C511  1  0.78070175  0.46491228  0.53333333  1
  C  C512  1  0.82017544  0.49122807  0.53333333  1
  C  C513  1  0.85964912  0.51754386  0.53333333  1
  C  C514  1  0.89912281  0.54385965  0.53333333  1
  C  C515  1  0.93859649  0.57017544  0.53333333  1
  C  C516  1  0.97807018  0.59649123  0.53333333  1
  C  C517  1  0.01754386  0.62280702  0.53333333  1
  C  C518  1  0.05701754  0.64912281  0.53333333  1
  C  C519  1  0.21491228  0.00438596  0.53333333  1
  C  C520  1  0.25438596  0.03070175  0.53333333  1
  C  C521  1  0.29385965  0.05701754  0.53333333  1
  C  C522  1  0.33333333  0.08333333  0.53333333  1
  C  C523  1  0.37280702  0.10964912  0.53333333  1
  C  C524  1  0.41228070  0.13596491  0.53333333  1
  C  C525  1  0.45175439  0.16228070  0.53333333  1
  C  C526  1  0.49122807  0.18859649  0.53333333  1
  C  C527  1  0.53070175  0.21491228  0.53333333  1
  C  C528  1  0.57017544  0.24122807  0.53333333  1
  C  C529  1  0.60964912  0.26754386  0.53333333  1
  C  C530  1  0.64912281  0.29385965  0.53333333  1
  C  C531  1  0.68859649  0.32017544  0.53333333  1
  C  C532  1  0.72807018  0.34649123  0.53333333  1
  C  C533  1  0.76754386  0.37280702  0.53333333  1
  C  C534  1  0.80701754  0.39912281  0.53333333  1
  C  C535  1  0.84649123  0.42543860  0.53333333  1
  C  C536  1  0.88596491  0.45175439  0.53333333  1
  C  C537  1  0.92543860  0.47807018  0.53333333  1
  C  C538  1  0.96491228  0.50438596  0.53333333  1
  C  C539  1  0.00438596  0.53070175  0.53333333  1
  C  C540  1  0.04385965  0.55701754  0.53333333  1
  C  C541  1  0.32017544  0.99122807  0.53333333  1
  C  C542  1  0.35964912  0.01754386  0.53333333  1
  C  C543  1  0.39912281  0.04385965  0.53333333  1
  C  C544  1  0.43859649  0.07017544  0.53333333  1
  C  C545  1  0.47807018  0.09649123  0.53333333  1
  C  C546  1  0.51754386  0.12280702  0.53333333  1
  C  C547  1  0.55701754  0.14912281  0.53333333  1
  C  C548  1  0.59649123  0.17543860  0.53333333  1
  C  C549  1  0.63596491  0.20175439  0.53333333  1
  C  C550  1  0.67543860  0.22807018  0.53333333  1
  C  C551  1  0.71491228  0.25438596  0.53333333  1
  C  C552  1  0.75438596  0.28070175  0.53333333  1
  C  C553  1  0.79385965  0.30701754  0.53333333  1
  C  C554  1  0.83333333  0.33333333  0.53333333  1
  C  C555  1  0.87280702  0.35964912  0.53333333  1
  C  C556  1  0.91228070  0.38596491  0.53333333  1
  C  C557  1  0.95175439  0.41228070  0.53333333  1
  C  C558  1  0.99122807  0.43859649  0.53333333  1
  C  C559  1  0.03070175  0.46491228  0.53333333  1
  C  C560  1  0.46491228  0.00438596  0.53333333  1
  C  C561  1  0.50438596  0.03070175  0.53333333  1
  C  C562  1  0.54385965  0.05701754  0.53333333  1
  C  C563  1  0.58333333  0.08333333  0.53333333  1
  C  C564  1  0.62280702  0.10964912  0.53333333  1
  C  C565  1  0.66228070  0.13596491  0.53333333  1
  C  C566  1  0.70175439  0.16228070  0.53333333  1
  C  C567  1  0.74122807  0.18859649  0.53333333  1
  C  C568  1  0.78070175  0.21491228  0.53333333  1
  C  C569  1  0.82017544  0.24122807  0.53333333  1
  C  C570  1  0.85964912  0.26754386  0.53333333  1
  C  C571  1  0.89912281  0.29385965  0.53333333  1
  C  C572  1  0.93859649  0.32017544  0.53333333  1
  C  C573  1  0.97807018  0.34649123  0.53333333  1
  C  C574  1  0.01754386  0.37280702  0.53333333  1
  C  C575  1  0.05701754  0.39912281  0.53333333  1
  C  C576  1  0.57017544  0.99122807  0.53333333  1
  C  C577  1  0.60964912  0.01754386  0.53333333  1
  C  C578  1  0.64912281  0.04385965  0.53333333  1
  C  C579  1  0.68859649  0.07017544  0.53333333  1
  C  C580  1  0.72807018  0.09649123  0.53333333  1
  C  C581  1  0.76754386  0.12280702  0.53333333  1
  C  C582  1  0.80701754  0.14912281  0.53333333  1
  C  C583  1  0.84649123  0.17543860  0.53333333  1
  C  C584  1  0.88596491  0.20175439  0.53333333  1
  C  C585  1  0.92543860  0.22807018  0.53333333  1
  C  C586  1  0.96491228  0.25438596  0.53333333  1
  C  C587  1  0.00438596  0.28070175  0.53333333  1
  C  C588  1  0.04385965  0.30701754  0.53333333  1
  C  C589  1  0.71491228  0.00438596  0.53333333  1
  C  C590  1  0.75438596  0.03070175  0.53333333  1
  C  C591  1  0.79385965  0.05701754  0.53333333  1
  C  C592  1  0.83333333  0.08333333  0.53333333  1
  C  C593  1  0.87280702  0.10964912  0.53333333  1
  C  C594  1  0.91228070  0.13596491  0.53333333  1
  C  C595  1  0.95175439  0.16228070  0.53333333  1
  C  C596  1  0.99122807  0.18859649  0.53333333  1
  C  C597  1  0.03070175  0.21491228  0.53333333  1
  C  C598  1  0.82017544  0.99122807  0.53333333  1
  C  C599  1  0.85964912  0.01754386  0.53333333  1
  C  C600  1  0.89912281  0.04385965  0.53333333  1
  C  C601  1  0.93859649  0.07017544  0.53333333  1
  C  C602  1  0.97807018  0.09649123  0.53333333  1
  C  C603  1  0.01754386  0.12280702  0.53333333  1
  C  C604  1  0.05701754  0.14912281  0.53333333  1
  C  C605  1  0.96491228  0.00438596  0.53333333  1
  C  C606  1  0.00438596  0.03070175  0.53333333  1
  C  C607  1  0.04385965  0.05701754  0.53333333  1
  C  C608  1  0.04385965  0.89912281  0.46666667  1
  C  C609  1  0.07017544  0.93859649  0.46666667  1
  C  C610  1  0.09649123  0.97807018  0.46666667  1
  C  C611  1  0.03070175  0.75438596  0.46666667  1
  C  C612  1  0.05701754  0.79385965  0.46666667  1
  C  C613  1  0.08333333  0.83333333  0.46666667  1
  C  C614  1  0.10964912  0.87280702  0.46666667  1
  C  C615  1  0.13596491  0.91228070  0.46666667  1
  C  C616  1  0.16228070  0.95175439  0.46666667  1
  C  C617  1  0.18859649  0.99122807  0.46666667  1
  C  C618  1  0.04385965  0.64912281  0.46666667  1
  C  C619  1  0.07017544  0.68859649  0.46666667  1
  C  C620  1  0.09649123  0.72807018  0.46666667  1
  C  C621  1  0.12280702  0.76754386  0.46666667  1
  C  C622  1  0.14912281  0.80701754  0.46666667  1
  C  C623  1  0.17543860  0.84649123  0.46666667  1
  C  C624  1  0.20175439  0.88596491  0.46666667  1
  C  C625  1  0.22807018  0.92543860  0.46666667  1
  C  C626  1  0.25438596  0.96491228  0.46666667  1
  C  C627  1  0.03070175  0.50438596  0.46666667  1
  C  C628  1  0.05701754  0.54385965  0.46666667  1
  C  C629  1  0.08333333  0.58333333  0.46666667  1
  C  C630  1  0.10964912  0.62280702  0.46666667  1
  C  C631  1  0.13596491  0.66228070  0.46666667  1
  C  C632  1  0.16228070  0.70175439  0.46666667  1
  C  C633  1  0.18859649  0.74122807  0.46666667  1
  C  C634  1  0.21491228  0.78070175  0.46666667  1
  C  C635  1  0.24122807  0.82017544  0.46666667  1
  C  C636  1  0.26754386  0.85964912  0.46666667  1
  C  C637  1  0.29385965  0.89912281  0.46666667  1
  C  C638  1  0.32017544  0.93859649  0.46666667  1
  C  C639  1  0.34649123  0.97807018  0.46666667  1
  C  C640  1  0.04385965  0.39912281  0.46666667  1
  C  C641  1  0.07017544  0.43859649  0.46666667  1
  C  C642  1  0.09649123  0.47807018  0.46666667  1
  C  C643  1  0.12280702  0.51754386  0.46666667  1
  C  C644  1  0.14912281  0.55701754  0.46666667  1
  C  C645  1  0.17543860  0.59649123  0.46666667  1
  C  C646  1  0.20175439  0.63596491  0.46666667  1
  C  C647  1  0.22807018  0.67543860  0.46666667  1
  C  C648  1  0.25438596  0.71491228  0.46666667  1
  C  C649  1  0.28070175  0.75438596  0.46666667  1
  C  C650  1  0.30701754  0.79385965  0.46666667  1
  C  C651  1  0.33333333  0.83333333  0.46666667  1
  C  C652  1  0.35964912  0.87280702  0.46666667  1
  C  C653  1  0.38596491  0.91228070  0.46666667  1
  C  C654  1  0.41228070  0.95175439  0.46666667  1
  C  C655  1  0.43859649  0.99122807  0.46666667  1
  C  C656  1  0.03070175  0.25438596  0.46666667  1
  C  C657  1  0.05701754  0.29385965  0.46666667  1
  C  C658  1  0.08333333  0.33333333  0.46666667  1
  C  C659  1  0.10964912  0.37280702  0.46666667  1
  C  C660  1  0.13596491  0.41228070  0.46666667  1
  C  C661  1  0.16228070  0.45175439  0.46666667  1
  C  C662  1  0.18859649  0.49122807  0.46666667  1
  C  C663  1  0.21491228  0.53070175  0.46666667  1
  C  C664  1  0.24122807  0.57017544  0.46666667  1
  C  C665  1  0.26754386  0.60964912  0.46666667  1
  C  C666  1  0.29385965  0.64912281  0.46666667  1
  C  C667  1  0.32017544  0.68859649  0.46666667  1
  C  C668  1  0.34649123  0.72807018  0.46666667  1
  C  C669  1  0.37280702  0.76754386  0.46666667  1
  C  C670  1  0.39912281  0.80701754  0.46666667  1
  C  C671  1  0.42543860  0.84649123  0.46666667  1
  C  C672  1  0.45175439  0.88596491  0.46666667  1
  C  C673  1  0.47807018  0.92543860  0.46666667  1
  C  C674  1  0.50438596  0.96491228  0.46666667  1
  C  C675  1  0.04385965  0.14912281  0.46666667  1
  C  C676  1  0.07017544  0.18859649  0.46666667  1
  C  C677  1  0.09649123  0.22807018  0.46666667  1
  C  C678  1  0.12280702  0.26754386  0.46666667  1
  C  C679  1  0.14912281  0.30701754  0.46666667  1
  C  C680  1  0.17543860  0.34649123  0.46666667  1
  C  C681  1  0.20175439  0.38596491  0.46666667  1
  C  C682  1  0.22807018  0.42543860  0.46666667  1
  C  C683  1  0.25438596  0.46491228  0.46666667  1
  C  C684  1  0.28070175  0.50438596  0.46666667  1
  C  C685  1  0.30701754  0.54385965  0.46666667  1
  C  C686  1  0.33333333  0.58333333  0.46666667  1
  C  C687  1  0.35964912  0.62280702  0.46666667  1
  C  C688  1  0.38596491  0.66228070  0.46666667  1
  C  C689  1  0.41228070  0.70175439  0.46666667  1
  C  C690  1  0.43859649  0.74122807  0.46666667  1
  C  C691  1  0.46491228  0.78070175  0.46666667  1
  C  C692  1  0.49122807  0.82017544  0.46666667  1
  C  C693  1  0.51754386  0.85964912  0.46666667  1
  C  C694  1  0.54385965  0.89912281  0.46666667  1
  C  C695  1  0.57017544  0.93859649  0.46666667  1
  C  C696  1  0.59649123  0.97807018  0.46666667  1
  C  C697  1  0.03070175  0.00438596  0.46666667  1
  C  C698  1  0.05701754  0.04385965  0.46666667  1
  C  C699  1  0.08333333  0.08333333  0.46666667  1
  C  C700  1  0.10964912  0.12280702  0.46666667  1
  C  C701  1  0.13596491  0.16228070  0.46666667  1
  C  C702  1  0.16228070  0.20175439  0.46666667  1
  C  C703  1  0.18859649  0.24122807  0.46666667  1
  C  C704  1  0.21491228  0.28070175  0.46666667  1
  C  C705  1  0.24122807  0.32017544  0.46666667  1
  C  C706  1  0.26754386  0.35964912  0.46666667  1
  C  C707  1  0.29385965  0.39912281  0.46666667  1
  C  C708  1  0.32017544  0.43859649  0.46666667  1
  C  C709  1  0.34649123  0.47807018  0.46666667  1
  C  C710  1  0.37280702  0.51754386  0.46666667  1
  C  C711  1  0.39912281  0.55701754  0.46666667  1
  C  C712  1  0.42543860  0.59649123  0.46666667  1
  C  C713  1  0.45175439  0.63596491  0.46666667  1
  C  C714  1  0.47807018  0.67543860  0.46666667  1
  C  C715  1  0.50438596  0.71491228  0.46666667  1
  C  C716  1  0.53070175  0.75438596  0.46666667  1
  C  C717  1  0.55701754  0.79385965  0.46666667  1
  C  C718  1  0.58333333  0.83333333  0.46666667  1
  C  C719  1  0.60964912  0.87280702  0.46666667  1
  C  C720  1  0.63596491  0.91228070  0.46666667  1
  C  C721  1  0.66228070  0.95175439  0.46666667  1
  C  C722  1  0.68859649  0.99122807  0.46666667  1
  C  C723  1  0.12280702  0.01754386  0.46666667  1
  C  C724  1  0.14912281  0.05701754  0.46666667  1
  C  C725  1  0.17543860  0.09649123  0.46666667  1
  C  C726  1  0.20175439  0.13596491  0.46666667  1
  C  C727  1  0.22807018  0.17543860  0.46666667  1
  C  C728  1  0.25438596  0.21491228  0.46666667  1
  C  C729  1  0.28070175  0.25438596  0.46666667  1
  C  C730  1  0.30701754  0.29385965  0.46666667  1
  C  C731  1  0.33333333  0.33333333  0.46666667  1
  C  C732  1  0.35964912  0.37280702  0.46666667  1
  C  C733  1  0.38596491  0.41228070  0.46666667  1
  C  C734  1  0.41228070  0.45175439  0.46666667  1
  C  C735  1  0.43859649  0.49122807  0.46666667  1
  C  C736  1  0.46491228  0.53070175  0.46666667  1
  C  C737  1  0.49122807  0.57017544  0.46666667  1
  C  C738  1  0.51754386  0.60964912  0.46666667  1
  C  C739  1  0.54385965  0.64912281  0.46666667  1
  C  C740  1  0.57017544  0.68859649  0.46666667  1
  C  C741  1  0.59649123  0.72807018  0.46666667  1
  C  C742  1  0.62280702  0.76754386  0.46666667  1
  C  C743  1  0.64912281  0.80701754  0.46666667  1
  C  C744  1  0.67543860  0.84649123  0.46666667  1
  C  C745  1  0.70175439  0.88596491  0.46666667  1
  C  C746  1  0.72807018  0.92543860  0.46666667  1
  C  C747  1  0.75438596  0.96491228  0.46666667  1
  C  C748  1  0.21491228  0.03070175  0.46666667  1
  C  C749  1  0.24122807  0.07017544  0.46666667  1
  C  C750  1  0.26754386  0.10964912  0.46666667  1
  C  C751  1  0.29385965  0.14912281  0.46666667  1
  C  C752  1  0.32017544  0.18859649  0.46666667  1
  C  C753  1  0.34649123  0.22807018  0.46666667  1
  C  C754  1  0.37280702  0.26754386  0.46666667  1
  C  C755  1  0.39912281  0.30701754  0.46666667  1
  C  C756  1  0.42543860  0.34649123  0.46666667  1
  C  C757  1  0.45175439  0.38596491  0.46666667  1
  C  C758  1  0.47807018  0.42543860  0.46666667  1
  C  C759  1  0.50438596  0.46491228  0.46666667  1
  C  C760  1  0.53070175  0.50438596  0.46666667  1
  C  C761  1  0.55701754  0.54385965  0.46666667  1
  C  C762  1  0.58333333  0.58333333  0.46666667  1
  C  C763  1  0.60964912  0.62280702  0.46666667  1
  C  C764  1  0.63596491  0.66228070  0.46666667  1
  C  C765  1  0.66228070  0.70175439  0.46666667  1
  C  C766  1  0.68859649  0.74122807  0.46666667  1
  C  C767  1  0.71491228  0.78070175  0.46666667  1
  C  C768  1  0.74122807  0.82017544  0.46666667  1
  C  C769  1  0.76754386  0.85964912  0.46666667  1
  C  C770  1  0.79385965  0.89912281  0.46666667  1
  C  C771  1  0.82017544  0.93859649  0.46666667  1
  C  C772  1  0.84649123  0.97807018  0.46666667  1
  C  C773  1  0.28070175  0.00438596  0.46666667  1
  C  C774  1  0.30701754  0.04385965  0.46666667  1
  C  C775  1  0.33333333  0.08333333  0.46666667  1
  C  C776  1  0.35964912  0.12280702  0.46666667  1
  C  C777  1  0.38596491  0.16228070  0.46666667  1
  C  C778  1  0.41228070  0.20175439  0.46666667  1
  C  C779  1  0.43859649  0.24122807  0.46666667  1
  C  C780  1  0.46491228  0.28070175  0.46666667  1
  C  C781  1  0.49122807  0.32017544  0.46666667  1
  C  C782  1  0.51754386  0.35964912  0.46666667  1
  C  C783  1  0.54385965  0.39912281  0.46666667  1
  C  C784  1  0.57017544  0.43859649  0.46666667  1
  C  C785  1  0.59649123  0.47807018  0.46666667  1
  C  C786  1  0.62280702  0.51754386  0.46666667  1
  C  C787  1  0.64912281  0.55701754  0.46666667  1
  C  C788  1  0.67543860  0.59649123  0.46666667  1
  C  C789  1  0.70175439  0.63596491  0.46666667  1
  C  C790  1  0.72807018  0.67543860  0.46666667  1
  C  C791  1  0.75438596  0.71491228  0.46666667  1
  C  C792  1  0.78070175  0.75438596  0.46666667  1
  C  C793  1  0.80701754  0.79385965  0.46666667  1
  C  C794  1  0.83333333  0.83333333  0.46666667  1
  C  C795  1  0.85964912  0.87280702  0.46666667  1
  C  C796  1  0.88596491  0.91228070  0.46666667  1
  C  C797  1  0.91228070  0.95175439  0.46666667  1
  C  C798  1  0.93859649  0.99122807  0.46666667  1
  C  C799  1  0.37280702  0.01754386  0.46666667  1
  C  C800  1  0.39912281  0.05701754  0.46666667  1
  C  C801  1  0.42543860  0.09649123  0.46666667  1
  C  C802  1  0.45175439  0.13596491  0.46666667  1
  C  C803  1  0.47807018  0.17543860  0.46666667  1
  C  C804  1  0.50438596  0.21491228  0.46666667  1
  C  C805  1  0.53070175  0.25438596  0.46666667  1
  C  C806  1  0.55701754  0.29385965  0.46666667  1
  C  C807  1  0.58333333  0.33333333  0.46666667  1
  C  C808  1  0.60964912  0.37280702  0.46666667  1
  C  C809  1  0.63596491  0.41228070  0.46666667  1
  C  C810  1  0.66228070  0.45175439  0.46666667  1
  C  C811  1  0.68859649  0.49122807  0.46666667  1
  C  C812  1  0.71491228  0.53070175  0.46666667  1
  C  C813  1  0.74122807  0.57017544  0.46666667  1
  C  C814  1  0.76754386  0.60964912  0.46666667  1
  C  C815  1  0.79385965  0.64912281  0.46666667  1
  C  C816  1  0.82017544  0.68859649  0.46666667  1
  C  C817  1  0.84649123  0.72807018  0.46666667  1
  C  C818  1  0.87280702  0.76754386  0.46666667  1
  C  C819  1  0.89912281  0.80701754  0.46666667  1
  C  C820  1  0.92543860  0.84649123  0.46666667  1
  C  C821  1  0.95175439  0.88596491  0.46666667  1
  C  C822  1  0.97807018  0.92543860  0.46666667  1
  C  C823  1  0.00438596  0.96491228  0.46666667  1
  C  C824  1  0.46491228  0.03070175  0.46666667  1
  C  C825  1  0.49122807  0.07017544  0.46666667  1
  C  C826  1  0.51754386  0.10964912  0.46666667  1
  C  C827  1  0.54385965  0.14912281  0.46666667  1
  C  C828  1  0.57017544  0.18859649  0.46666667  1
  C  C829  1  0.59649123  0.22807018  0.46666667  1
  C  C830  1  0.62280702  0.26754386  0.46666667  1
  C  C831  1  0.64912281  0.30701754  0.46666667  1
  C  C832  1  0.67543860  0.34649123  0.46666667  1
  C  C833  1  0.70175439  0.38596491  0.46666667  1
  C  C834  1  0.72807018  0.42543860  0.46666667  1
  C  C835  1  0.75438596  0.46491228  0.46666667  1
  C  C836  1  0.78070175  0.50438596  0.46666667  1
  C  C837  1  0.80701754  0.54385965  0.46666667  1
  C  C838  1  0.83333333  0.58333333  0.46666667  1
  C  C839  1  0.85964912  0.62280702  0.46666667  1
  C  C840  1  0.88596491  0.66228070  0.46666667  1
  C  C841  1  0.91228070  0.70175439  0.46666667  1
  C  C842  1  0.93859649  0.74122807  0.46666667  1
  C  C843  1  0.96491228  0.78070175  0.46666667  1
  C  C844  1  0.99122807  0.82017544  0.46666667  1
  C  C845  1  0.01754386  0.85964912  0.46666667  1
  C  C846  1  0.53070175  0.00438596  0.46666667  1
  C  C847  1  0.55701754  0.04385965  0.46666667  1
  C  C848  1  0.58333333  0.08333333  0.46666667  1
  C  C849  1  0.60964912  0.12280702  0.46666667  1
  C  C850  1  0.63596491  0.16228070  0.46666667  1
  C  C851  1  0.66228070  0.20175439  0.46666667  1
  C  C852  1  0.68859649  0.24122807  0.46666667  1
  C  C853  1  0.71491228  0.28070175  0.46666667  1
  C  C854  1  0.74122807  0.32017544  0.46666667  1
  C  C855  1  0.76754386  0.35964912  0.46666667  1
  C  C856  1  0.79385965  0.39912281  0.46666667  1
  C  C857  1  0.82017544  0.43859649  0.46666667  1
  C  C858  1  0.84649123  0.47807018  0.46666667  1
  C  C859  1  0.87280702  0.51754386  0.46666667  1
  C  C860  1  0.89912281  0.55701754  0.46666667  1
  C  C861  1  0.92543860  0.59649123  0.46666667  1
  C  C862  1  0.95175439  0.63596491  0.46666667  1
  C  C863  1  0.97807018  0.67543860  0.46666667  1
  C  C864  1  0.00438596  0.71491228  0.46666667  1
  C  C865  1  0.62280702  0.01754386  0.46666667  1
  C  C866  1  0.64912281  0.05701754  0.46666667  1
  C  C867  1  0.67543860  0.09649123  0.46666667  1
  C  C868  1  0.70175439  0.13596491  0.46666667  1
  C  C869  1  0.72807018  0.17543860  0.46666667  1
  C  C870  1  0.75438596  0.21491228  0.46666667  1
  C  C871  1  0.78070175  0.25438596  0.46666667  1
  C  C872  1  0.80701754  0.29385965  0.46666667  1
  C  C873  1  0.83333333  0.33333333  0.46666667  1
  C  C874  1  0.85964912  0.37280702  0.46666667  1
  C  C875  1  0.88596491  0.41228070  0.46666667  1
  C  C876  1  0.91228070  0.45175439  0.46666667  1
  C  C877  1  0.93859649  0.49122807  0.46666667  1
  C  C878  1  0.96491228  0.53070175  0.46666667  1
  C  C879  1  0.99122807  0.57017544  0.46666667  1
  C  C880  1  0.01754386  0.60964912  0.46666667  1
  C  C881  1  0.71491228  0.03070175  0.46666667  1
  C  C882  1  0.74122807  0.07017544  0.46666667  1
  C  C883  1  0.76754386  0.10964912  0.46666667  1
  C  C884  1  0.79385965  0.14912281  0.46666667  1
  C  C885  1  0.82017544  0.18859649  0.46666667  1
  C  C886  1  0.84649123  0.22807018  0.46666667  1
  C  C887  1  0.87280702  0.26754386  0.46666667  1
  C  C888  1  0.89912281  0.30701754  0.46666667  1
  C  C889  1  0.92543860  0.34649123  0.46666667  1
  C  C890  1  0.95175439  0.38596491  0.46666667  1
  C  C891  1  0.97807018  0.42543860  0.46666667  1
  C  C892  1  0.00438596  0.46491228  0.46666667  1
  C  C893  1  0.78070175  0.00438596  0.46666667  1
  C  C894  1  0.80701754  0.04385965  0.46666667  1
  C  C895  1  0.83333333  0.08333333  0.46666667  1
  C  C896  1  0.85964912  0.12280702  0.46666667  1
  C  C897  1  0.88596491  0.16228070  0.46666667  1
  C  C898  1  0.91228070  0.20175439  0.46666667  1
  C  C899  1  0.93859649  0.24122807  0.46666667  1
  C  C900  1  0.96491228  0.28070175  0.46666667  1
  C  C901  1  0.99122807  0.32017544  0.46666667  1
  C  C902  1  0.01754386  0.35964912  0.46666667  1
  C  C903  1  0.87280702  0.01754386  0.46666667  1
  C  C904  1  0.89912281  0.05701754  0.46666667  1
  C  C905  1  0.92543860  0.09649123  0.46666667  1
  C  C906  1  0.95175439  0.13596491  0.46666667  1
  C  C907  1  0.97807018  0.17543860  0.46666667  1
  C  C908  1  0.00438596  0.21491228  0.46666667  1
  C  C909  1  0.96491228  0.03070175  0.46666667  1
  C  C910  1  0.99122807  0.07017544  0.46666667  1
  C  C911  1  0.01754386  0.10964912  0.46666667  1
  C  C912  1  0.07456140  0.90350877  0.46666667  1
  C  C913  1  0.10087719  0.94298246  0.46666667  1
  C  C914  1  0.12719298  0.98245614  0.46666667  1
  C  C915  1  0.06140351  0.75877193  0.46666667  1
  C  C916  1  0.08771930  0.79824561  0.46666667  1
  C  C917  1  0.11403509  0.83771930  0.46666667  1
  C  C918  1  0.14035088  0.87719298  0.46666667  1
  C  C919  1  0.16666667  0.91666667  0.46666667  1
  C  C920  1  0.19298246  0.95614035  0.46666667  1
  C  C921  1  0.21929825  0.99561404  0.46666667  1
  C  C922  1  0.07456140  0.65350877  0.46666667  1
  C  C923  1  0.10087719  0.69298246  0.46666667  1
  C  C924  1  0.12719298  0.73245614  0.46666667  1
  C  C925  1  0.15350877  0.77192982  0.46666667  1
  C  C926  1  0.17982456  0.81140351  0.46666667  1
  C  C927  1  0.20614035  0.85087719  0.46666667  1
  C  C928  1  0.23245614  0.89035088  0.46666667  1
  C  C929  1  0.25877193  0.92982456  0.46666667  1
  C  C930  1  0.28508772  0.96929825  0.46666667  1
  C  C931  1  0.06140351  0.50877193  0.46666667  1
  C  C932  1  0.08771930  0.54824561  0.46666667  1
  C  C933  1  0.11403509  0.58771930  0.46666667  1
  C  C934  1  0.14035088  0.62719298  0.46666667  1
  C  C935  1  0.16666667  0.66666667  0.46666667  1
  C  C936  1  0.19298246  0.70614035  0.46666667  1
  C  C937  1  0.21929825  0.74561404  0.46666667  1
  C  C938  1  0.24561404  0.78508772  0.46666667  1
  C  C939  1  0.27192982  0.82456140  0.46666667  1
  C  C940  1  0.29824561  0.86403509  0.46666667  1
  C  C941  1  0.32456140  0.90350877  0.46666667  1
  C  C942  1  0.35087719  0.94298246  0.46666667  1
  C  C943  1  0.37719298  0.98245614  0.46666667  1
  C  C944  1  0.07456140  0.40350877  0.46666667  1
  C  C945  1  0.10087719  0.44298246  0.46666667  1
  C  C946  1  0.12719298  0.48245614  0.46666667  1
  C  C947  1  0.15350877  0.52192982  0.46666667  1
  C  C948  1  0.17982456  0.56140351  0.46666667  1
  C  C949  1  0.20614035  0.60087719  0.46666667  1
  C  C950  1  0.23245614  0.64035088  0.46666667  1
  C  C951  1  0.25877193  0.67982456  0.46666667  1
  C  C952  1  0.28508772  0.71929825  0.46666667  1
  C  C953  1  0.31140351  0.75877193  0.46666667  1
  C  C954  1  0.33771930  0.79824561  0.46666667  1
  C  C955  1  0.36403509  0.83771930  0.46666667  1
  C  C956  1  0.39035088  0.87719298  0.46666667  1
  C  C957  1  0.41666667  0.91666667  0.46666667  1
  C  C958  1  0.44298246  0.95614035  0.46666667  1
  C  C959  1  0.46929825  0.99561404  0.46666667  1
  C  C960  1  0.06140351  0.25877193  0.46666667  1
  C  C961  1  0.08771930  0.29824561  0.46666667  1
  C  C962  1  0.11403509  0.33771930  0.46666667  1
  C  C963  1  0.14035088  0.37719298  0.46666667  1
  C  C964  1  0.16666667  0.41666667  0.46666667  1
  C  C965  1  0.19298246  0.45614035  0.46666667  1
  C  C966  1  0.21929825  0.49561404  0.46666667  1
  C  C967  1  0.24561404  0.53508772  0.46666667  1
  C  C968  1  0.27192982  0.57456140  0.46666667  1
  C  C969  1  0.29824561  0.61403509  0.46666667  1
  C  C970  1  0.32456140  0.65350877  0.46666667  1
  C  C971  1  0.35087719  0.69298246  0.46666667  1
  C  C972  1  0.37719298  0.73245614  0.46666667  1
  C  C973  1  0.40350877  0.77192982  0.46666667  1
  C  C974  1  0.42982456  0.81140351  0.46666667  1
  C  C975  1  0.45614035  0.85087719  0.46666667  1
  C  C976  1  0.48245614  0.89035088  0.46666667  1
  C  C977  1  0.50877193  0.92982456  0.46666667  1
  C  C978  1  0.53508772  0.96929825  0.46666667  1
  C  C979  1  0.07456140  0.15350877  0.46666667  1
  C  C980  1  0.10087719  0.19298246  0.46666667  1
  C  C981  1  0.12719298  0.23245614  0.46666667  1
  C  C982  1  0.15350877  0.27192982  0.46666667  1
  C  C983  1  0.17982456  0.31140351  0.46666667  1
  C  C984  1  0.20614035  0.35087719  0.46666667  1
  C  C985  1  0.23245614  0.39035088  0.46666667  1
  C  C986  1  0.25877193  0.42982456  0.46666667  1
  C  C987  1  0.28508772  0.46929825  0.46666667  1
  C  C988  1  0.31140351  0.50877193  0.46666667  1
  C  C989  1  0.33771930  0.54824561  0.46666667  1
  C  C990  1  0.36403509  0.58771930  0.46666667  1
  C  C991  1  0.39035088  0.62719298  0.46666667  1
  C  C992  1  0.41666667  0.66666667  0.46666667  1
  C  C993  1  0.44298246  0.70614035  0.46666667  1
  C  C994  1  0.46929825  0.74561404  0.46666667  1
  C  C995  1  0.49561404  0.78508772  0.46666667  1
  C  C996  1  0.52192982  0.82456140  0.46666667  1
  C  C997  1  0.54824561  0.86403509  0.46666667  1
  C  C998  1  0.57456140  0.90350877  0.46666667  1
  C  C999  1  0.60087719  0.94298246  0.46666667  1
  C  C1000  1  0.62719298  0.98245614  0.46666667  1
  C  C1001  1  0.06140351  0.00877193  0.46666667  1
  C  C1002  1  0.08771930  0.04824561  0.46666667  1
  C  C1003  1  0.11403509  0.08771930  0.46666667  1
  C  C1004  1  0.14035088  0.12719298  0.46666667  1
  C  C1005  1  0.16666667  0.16666667  0.46666667  1
  C  C1006  1  0.19298246  0.20614035  0.46666667  1
  C  C1007  1  0.21929825  0.24561404  0.46666667  1
  C  C1008  1  0.24561404  0.28508772  0.46666667  1
  C  C1009  1  0.27192982  0.32456140  0.46666667  1
  C  C1010  1  0.29824561  0.36403509  0.46666667  1
  C  C1011  1  0.32456140  0.40350877  0.46666667  1
  C  C1012  1  0.35087719  0.44298246  0.46666667  1
  C  C1013  1  0.37719298  0.48245614  0.46666667  1
  C  C1014  1  0.40350877  0.52192982  0.46666667  1
  C  C1015  1  0.42982456  0.56140351  0.46666667  1
  C  C1016  1  0.45614035  0.60087719  0.46666667  1
  C  C1017  1  0.48245614  0.64035088  0.46666667  1
  C  C1018  1  0.50877193  0.67982456  0.46666667  1
  C  C1019  1  0.53508772  0.71929825  0.46666667  1
  C  C1020  1  0.56140351  0.75877193  0.46666667  1
  C  C1021  1  0.58771930  0.79824561  0.46666667  1
  C  C1022  1  0.61403509  0.83771930  0.46666667  1
  C  C1023  1  0.64035088  0.87719298  0.46666667  1
  C  C1024  1  0.66666667  0.91666667  0.46666667  1
  C  C1025  1  0.69298246  0.95614035  0.46666667  1
  C  C1026  1  0.71929825  0.99561404  0.46666667  1
  C  C1027  1  0.15350877  0.02192982  0.46666667  1
  C  C1028  1  0.17982456  0.06140351  0.46666667  1
  C  C1029  1  0.20614035  0.10087719  0.46666667  1
  C  C1030  1  0.23245614  0.14035088  0.46666667  1
  C  C1031  1  0.25877193  0.17982456  0.46666667  1
  C  C1032  1  0.28508772  0.21929825  0.46666667  1
  C  C1033  1  0.31140351  0.25877193  0.46666667  1
  C  C1034  1  0.33771930  0.29824561  0.46666667  1
  C  C1035  1  0.36403509  0.33771930  0.46666667  1
  C  C1036  1  0.39035088  0.37719298  0.46666667  1
  C  C1037  1  0.41666667  0.41666667  0.46666667  1
  C  C1038  1  0.44298246  0.45614035  0.46666667  1
  C  C1039  1  0.46929825  0.49561404  0.46666667  1
  C  C1040  1  0.49561404  0.53508772  0.46666667  1
  C  C1041  1  0.52192982  0.57456140  0.46666667  1
  C  C1042  1  0.54824561  0.61403509  0.46666667  1
  C  C1043  1  0.57456140  0.65350877  0.46666667  1
  C  C1044  1  0.60087719  0.69298246  0.46666667  1
  C  C1045  1  0.62719298  0.73245614  0.46666667  1
  C  C1046  1  0.65350877  0.77192982  0.46666667  1
  C  C1047  1  0.67982456  0.81140351  0.46666667  1
  C  C1048  1  0.70614035  0.85087719  0.46666667  1
  C  C1049  1  0.73245614  0.89035088  0.46666667  1
  C  C1050  1  0.75877193  0.92982456  0.46666667  1
  C  C1051  1  0.78508772  0.96929825  0.46666667  1
  C  C1052  1  0.24561404  0.03508772  0.46666667  1
  C  C1053  1  0.27192982  0.07456140  0.46666667  1
  C  C1054  1  0.29824561  0.11403509  0.46666667  1
  C  C1055  1  0.32456140  0.15350877  0.46666667  1
  C  C1056  1  0.35087719  0.19298246  0.46666667  1
  C  C1057  1  0.37719298  0.23245614  0.46666667  1
  C  C1058  1  0.40350877  0.27192982  0.46666667  1
  C  C1059  1  0.42982456  0.31140351  0.46666667  1
  C  C1060  1  0.45614035  0.35087719  0.46666667  1
  C  C1061  1  0.48245614  0.39035088  0.46666667  1
  C  C1062  1  0.50877193  0.42982456  0.46666667  1
  C  C1063  1  0.53508772  0.46929825  0.46666667  1
  C  C1064  1  0.56140351  0.50877193  0.46666667  1
  C  C1065  1  0.58771930  0.54824561  0.46666667  1
  C  C1066  1  0.61403509  0.58771930  0.46666667  1
  C  C1067  1  0.64035088  0.62719298  0.46666667  1
  C  C1068  1  0.66666667  0.66666667  0.46666667  1
  C  C1069  1  0.69298246  0.70614035  0.46666667  1
  C  C1070  1  0.71929825  0.74561404  0.46666667  1
  C  C1071  1  0.74561404  0.78508772  0.46666667  1
  C  C1072  1  0.77192982  0.82456140  0.46666667  1
  C  C1073  1  0.79824561  0.86403509  0.46666667  1
  C  C1074  1  0.82456140  0.90350877  0.46666667  1
  C  C1075  1  0.85087719  0.94298246  0.46666667  1
  C  C1076  1  0.87719298  0.98245614  0.46666667  1
  C  C1077  1  0.31140351  0.00877193  0.46666667  1
  C  C1078  1  0.33771930  0.04824561  0.46666667  1
  C  C1079  1  0.36403509  0.08771930  0.46666667  1
  C  C1080  1  0.39035088  0.12719298  0.46666667  1
  C  C1081  1  0.41666667  0.16666667  0.46666667  1
  C  C1082  1  0.44298246  0.20614035  0.46666667  1
  C  C1083  1  0.46929825  0.24561404  0.46666667  1
  C  C1084  1  0.49561404  0.28508772  0.46666667  1
  C  C1085  1  0.52192982  0.32456140  0.46666667  1
  C  C1086  1  0.54824561  0.36403509  0.46666667  1
  C  C1087  1  0.57456140  0.40350877  0.46666667  1
  C  C1088  1  0.60087719  0.44298246  0.46666667  1
  C  C1089  1  0.62719298  0.48245614  0.46666667  1
  C  C1090  1  0.65350877  0.52192982  0.46666667  1
  C  C1091  1  0.67982456  0.56140351  0.46666667  1
  C  C1092  1  0.70614035  0.60087719  0.46666667  1
  C  C1093  1  0.73245614  0.64035088  0.46666667  1
  C  C1094  1  0.75877193  0.67982456  0.46666667  1
  C  C1095  1  0.78508772  0.71929825  0.46666667  1
  C  C1096  1  0.81140351  0.75877193  0.46666667  1
  C  C1097  1  0.83771930  0.79824561  0.46666667  1
  C  C1098  1  0.86403509  0.83771930  0.46666667  1
  C  C1099  1  0.89035088  0.87719298  0.46666667  1
  C  C1100  1  0.91666667  0.91666667  0.46666667  1
  C  C1101  1  0.94298246  0.95614035  0.46666667  1
  C  C1102  1  0.96929825  0.99561404  0.46666667  1
  C  C1103  1  0.40350877  0.02192982  0.46666667  1
  C  C1104  1  0.42982456  0.06140351  0.46666667  1
  C  C1105  1  0.45614035  0.10087719  0.46666667  1
  C  C1106  1  0.48245614  0.14035088  0.46666667  1
  C  C1107  1  0.50877193  0.17982456  0.46666667  1
  C  C1108  1  0.53508772  0.21929825  0.46666667  1
  C  C1109  1  0.56140351  0.25877193  0.46666667  1
  C  C1110  1  0.58771930  0.29824561  0.46666667  1
  C  C1111  1  0.61403509  0.33771930  0.46666667  1
  C  C1112  1  0.64035088  0.37719298  0.46666667  1
  C  C1113  1  0.66666667  0.41666667  0.46666667  1
  C  C1114  1  0.69298246  0.45614035  0.46666667  1
  C  C1115  1  0.71929825  0.49561404  0.46666667  1
  C  C1116  1  0.74561404  0.53508772  0.46666667  1
  C  C1117  1  0.77192982  0.57456140  0.46666667  1
  C  C1118  1  0.79824561  0.61403509  0.46666667  1
  C  C1119  1  0.82456140  0.65350877  0.46666667  1
  C  C1120  1  0.85087719  0.69298246  0.46666667  1
  C  C1121  1  0.87719298  0.73245614  0.46666667  1
  C  C1122  1  0.90350877  0.77192982  0.46666667  1
  C  C1123  1  0.92982456  0.81140351  0.46666667  1
  C  C1124  1  0.95614035  0.85087719  0.46666667  1
  C  C1125  1  0.98245614  0.89035088  0.46666667  1
  C  C1126  1  0.00877193  0.92982456  0.46666667  1
  C  C1127  1  0.03508772  0.96929825  0.46666667  1
  C  C1128  1  0.49561404  0.03508772  0.46666667  1
  C  C1129  1  0.52192982  0.07456140  0.46666667  1
  C  C1130  1  0.54824561  0.11403509  0.46666667  1
  C  C1131  1  0.57456140  0.15350877  0.46666667  1
  C  C1132  1  0.60087719  0.19298246  0.46666667  1
  C  C1133  1  0.62719298  0.23245614  0.46666667  1
  C  C1134  1  0.65350877  0.27192982  0.46666667  1
  C  C1135  1  0.67982456  0.31140351  0.46666667  1
  C  C1136  1  0.70614035  0.35087719  0.46666667  1
  C  C1137  1  0.73245614  0.39035088  0.46666667  1
  C  C1138  1  0.75877193  0.42982456  0.46666667  1
  C  C1139  1  0.78508772  0.46929825  0.46666667  1
  C  C1140  1  0.81140351  0.50877193  0.46666667  1
  C  C1141  1  0.83771930  0.54824561  0.46666667  1
  C  C1142  1  0.86403509  0.58771930  0.46666667  1
  C  C1143  1  0.89035088  0.62719298  0.46666667  1
  C  C1144  1  0.91666667  0.66666667  0.46666667  1
  C  C1145  1  0.94298246  0.70614035  0.46666667  1
  C  C1146  1  0.96929825  0.74561404  0.46666667  1
  C  C1147  1  0.99561404  0.78508772  0.46666667  1
  C  C1148  1  0.02192982  0.82456140  0.46666667  1
  C  C1149  1  0.04824561  0.86403509  0.46666667  1
  C  C1150  1  0.56140351  0.00877193  0.46666667  1
  C  C1151  1  0.58771930  0.04824561  0.46666667  1
  C  C1152  1  0.61403509  0.08771930  0.46666667  1
  C  C1153  1  0.64035088  0.12719298  0.46666667  1
  C  C1154  1  0.66666667  0.16666667  0.46666667  1
  C  C1155  1  0.69298246  0.20614035  0.46666667  1
  C  C1156  1  0.71929825  0.24561404  0.46666667  1
  C  C1157  1  0.74561404  0.28508772  0.46666667  1
  C  C1158  1  0.77192982  0.32456140  0.46666667  1
  C  C1159  1  0.79824561  0.36403509  0.46666667  1
  C  C1160  1  0.82456140  0.40350877  0.46666667  1
  C  C1161  1  0.85087719  0.44298246  0.46666667  1
  C  C1162  1  0.87719298  0.48245614  0.46666667  1
  C  C1163  1  0.90350877  0.52192982  0.46666667  1
  C  C1164  1  0.92982456  0.56140351  0.46666667  1
  C  C1165  1  0.95614035  0.60087719  0.46666667  1
  C  C1166  1  0.98245614  0.64035088  0.46666667  1
  C  C1167  1  0.00877193  0.67982456  0.46666667  1
  C  C1168  1  0.03508772  0.71929825  0.46666667  1
  C  C1169  1  0.65350877  0.02192982  0.46666667  1
  C  C1170  1  0.67982456  0.06140351  0.46666667  1
  C  C1171  1  0.70614035  0.10087719  0.46666667  1
  C  C1172  1  0.73245614  0.14035088  0.46666667  1
  C  C1173  1  0.75877193  0.17982456  0.46666667  1
  C  C1174  1  0.78508772  0.21929825  0.46666667  1
  C  C1175  1  0.81140351  0.25877193  0.46666667  1
  C  C1176  1  0.83771930  0.29824561  0.46666667  1
  C  C1177  1  0.86403509  0.33771930  0.46666667  1
  C  C1178  1  0.89035088  0.37719298  0.46666667  1
  C  C1179  1  0.91666667  0.41666667  0.46666667  1
  C  C1180  1  0.94298246  0.45614035  0.46666667  1
  C  C1181  1  0.96929825  0.49561404  0.46666667  1
  C  C1182  1  0.99561404  0.53508772  0.46666667  1
  C  C1183  1  0.02192982  0.57456140  0.46666667  1
  C  C1184  1  0.04824561  0.61403509  0.46666667  1
  C  C1185  1  0.74561404  0.03508772  0.46666667  1
  C  C1186  1  0.77192982  0.07456140  0.46666667  1
  C  C1187  1  0.79824561  0.11403509  0.46666667  1
  C  C1188  1  0.82456140  0.15350877  0.46666667  1
  C  C1189  1  0.85087719  0.19298246  0.46666667  1
  C  C1190  1  0.87719298  0.23245614  0.46666667  1
  C  C1191  1  0.90350877  0.27192982  0.46666667  1
  C  C1192  1  0.92982456  0.31140351  0.46666667  1
  C  C1193  1  0.95614035  0.35087719  0.46666667  1
  C  C1194  1  0.98245614  0.39035088  0.46666667  1
  C  C1195  1  0.00877193  0.42982456  0.46666667  1
  C  C1196  1  0.03508772  0.46929825  0.46666667  1
  C  C1197  1  0.81140351  0.00877193  0.46666667  1
  C  C1198  1  0.83771930  0.04824561  0.46666667  1
  C  C1199  1  0.86403509  0.08771930  0.46666667  1
  C  C1200  1  0.89035088  0.12719298  0.46666667  1
  C  C1201  1  0.91666667  0.16666667  0.46666667  1
  C  C1202  1  0.94298246  0.20614035  0.46666667  1
  C  C1203  1  0.96929825  0.24561404  0.46666667  1
  C  C1204  1  0.99561404  0.28508772  0.46666667  1
  C  C1205  1  0.02192982  0.32456140  0.46666667  1
  C  C1206  1  0.04824561  0.36403509  0.46666667  1
  C  C1207  1  0.90350877  0.02192982  0.46666667  1
  C  C1208  1  0.92982456  0.06140351  0.46666667  1
  C  C1209  1  0.95614035  0.10087719  0.46666667  1
  C  C1210  1  0.98245614  0.14035088  0.46666667  1
  C  C1211  1  0.00877193  0.17982456  0.46666667  1
  C  C1212  1  0.03508772  0.21929825  0.46666667  1
  C  C1213  1  0.99561404  0.03508772  0.46666667  1
  C  C1214  1  0.02192982  0.07456140  0.46666667  1
  C  C1215  1  0.04824561  0.11403509  0.46666667  1
